/*--------------------------------*- C++ -*----------------------------------*\
| =========                 |                                                 |
| \\      /  F ield         | OpenFOAM: The Open Source CFD Toolbox           |
|  \\    /   O peration     | Version:  v2306                                 |
|   \\  /    A nd           | Website:  www.openfoam.com                      |
|    \\/     M anipulation  |                                                 |
\*---------------------------------------------------------------------------*/
FoamFile
{
    version     2.0;
    format      ascii;
    class       dictionary;
    object      blockMeshDict;
}
// * * * * * * * * * * * * * * * * * * * * * * * * * * * * * * * * * * * * * //

scale   0.01;

vertices
(
    (0 0 0)
    (22.86 0 0)
    (22.86 11.43 0)
    (0 11.43 0)
    (0 0 1)
    (22.86 0 1)
    (22.86 11.43 1)
    (0 11.43 1)
);

blocks
(
    hex (0 1 2 3 4 5 6 7) (256 128 1) simpleGrading (1 1 1)
);

edges
(
);

boundary
(
    leftWall
    {
        type patch;
        faces
        (
            (0 3 7 4)
        );

    }
    rightWall
    {
        type patch;
        faces
        (
            (1 5 6 2)
        );

    }
    lowerWall
    {
        type patch;
        faces
        (
            (0 1 5 4)
        );
    }
    atmosphere
    {
        type patch;
        faces
        (
            (2 3 7 6)
        );
    }
);

mergePatchPairs
(
);

// ************************************************************************* //
