/*--------------------------------*- C++ -*----------------------------------*\
| =========                 |                                                 |
| \\      /  F ield         | OpenFOAM: The Open Source CFD Toolbox           |
|  \\    /   O peration     | Version:  2306                                  |
|   \\  /    A nd           | Website:  www.openfoam.com                      |
|    \\/     M anipulation  |                                                 |
\*---------------------------------------------------------------------------*/
FoamFile
{
    version     2.0;
    format      ascii;
    arch        "LSB;label=32;scalar=64";
    class       polyBoundaryMesh;
    location    "constant/polyMesh";
    object      boundary;
}
// * * * * * * * * * * * * * * * * * * * * * * * * * * * * * * * * * * * * * //

9
(
    bottom
    {
        type            wall;
        inGroups        1(wall);
        nFaces          0;
        startFace       12640;
    }
    top
    {
        type            wall;
        inGroups        1(wall);
        nFaces          0;
        startFace       12640;
    }
    right
    {
        type            wall;
        inGroups        1(wall);
        nFaces          0;
        startFace       12640;
    }
    back
    {
        type            wedge;
        inGroups        1(wedge);
        nFaces          6400;
        startFace       12640;
    }
    front
    {
        type            wedge;
        inGroups        1(wedge);
        nFaces          6400;
        startFace       19040;
    }
    axis
    {
        type            empty;
        inGroups        1(empty);
        nFaces          0;
        startFace       25440;
    }
    procBoundary2to0
    {
        type            processor;
        inGroups        1(processor);
        nFaces          80;
        startFace       25440;
        matchTolerance  0.0001;
        transform       unknown;
        myProcNo        2;
        neighbProcNo    0;
    }
    procBoundary2to3
    {
        type            processor;
        inGroups        1(processor);
        nFaces          80;
        startFace       25520;
        matchTolerance  0.0001;
        transform       unknown;
        myProcNo        2;
        neighbProcNo    3;
    }
    procBoundary2to4
    {
        type            processor;
        inGroups        1(processor);
        nFaces          80;
        startFace       25600;
        matchTolerance  0.0001;
        transform       unknown;
        myProcNo        2;
        neighbProcNo    4;
    }
)

// ************************************************************************* //
